OpenDSS/dn672b.dss
Clear
Set DefaultBaseFrequency=60

new object=circuit.dn25b
~ basekv=13.8 pu=1 phases=3 bus1=B136 Angle=0 MVAsc3=20000 MVASC1=21000

new linecode.LC136_1 nphases = 3
~ r1=1e-4 r0=1e-4 x1=0.000 x0=0.000 c1=0.000 c0=0.000
new linecode.LC1_2 nphases = 3
~ rmatrix = (0.38448 | 0.054 0.38448 | 0.054 0.054 0.38448)
~ xmatrix = (0.86481 | 0.4302 0.86481 | 0.405 0.4824 0.86481)
new linecode.LC2_3 nphases = 3
~ rmatrix = (0.0542 | 0.003 0.0542 | 0.003 0.003 0.0542)
~ xmatrix = (0.0499 | 0.0239 0.0499 | 0.0225 0.0268 0.0499)
new linecode.LC3_4 nphases = 3
~ rmatrix = (0.04272 | 0.006 0.04272 | 0.006 0.006 0.04272)
~ xmatrix = (0.09609 | 0.0478 0.09609 | 0.045 0.0536 0.09609)
new linecode.LC3_5 nphases = 3
~ rmatrix = (0.017088 | 0.0024 0.017088 | 0.0024 0.0024 0.017088)
~ xmatrix = (0.038436 | 0.01912 0.038436 | 0.018 0.02144 0.038436)
new linecode.LC5_6 nphases = 3
~ rmatrix = (0.08544 | 0.012 0.08544 | 0.012 0.012 0.08544)
~ xmatrix = (0.19218 | 0.0956 0.19218 | 0.09 0.1072 0.19218)
new linecode.LC6_7 nphases = 3
~ rmatrix = (0.08544 | 0.012 0.08544 | 0.012 0.012 0.08544)
~ xmatrix = (0.19218 | 0.0956 0.19218 | 0.09 0.1072 0.19218)
new linecode.LC7_8 nphases = 3
~ rmatrix = (0.08544 | 0.012 0.08544 | 0.012 0.012 0.08544)
~ xmatrix = (0.19218 | 0.0956 0.19218 | 0.09 0.1072 0.19218)
new linecode.LC8_9 nphases = 3
~ rmatrix = (0.004272 | 0.0006 0.004272 | 0.0006 0.0006 0.004272)
~ xmatrix = (0.009609 | 0.00478 0.009609 | 0.0045 0.00536 0.009609)
new linecode.LC9_10 nphases = 3
~ rmatrix = (0.02136 | 0.003 0.02136 | 0.003 0.003 0.02136)
~ xmatrix = (0.048045 | 0.0239 0.048045 | 0.0225 0.0268 0.048045)
new linecode.LC10_11 nphases = 3
~ rmatrix = (0.1644 | 0.006 0.1644 | 0.006 0.006 0.1644)
~ xmatrix = (0.1006 | 0.0478 0.1006 | 0.045 0.0536 0.1006)
new linecode.LC11_12 nphases = 3
~ rmatrix = (0.09864 | 0.0036 0.09864 | 0.0036 0.0036 0.09864)
~ xmatrix = (0.06036 | 0.02868 0.06036 | 0.027 0.03216 0.06036)
new linecode.LC12_13 nphases = 3
~ rmatrix = (0.04932 | 0.0018 0.04932 | 0.0018 0.0018 0.04932)
~ xmatrix = (0.03018 | 0.01434 0.03018 | 0.0135 0.01608 0.03018)
new linecode.LC13_14 nphases = 3
~ rmatrix = (0.26304 | 0.0096 0.26304 | 0.0096 0.0096 0.26304)
~ xmatrix = (0.16096 | 0.07648 0.16096 | 0.072 0.08576 0.16096)
new linecode.LC14_15 nphases = 3
~ rmatrix = (0.04932 | 0.0018 0.04932 | 0.0018 0.0018 0.04932)
~ xmatrix = (0.03018 | 0.01434 0.03018 | 0.0135 0.01608 0.03018)
new linecode.LC12_16 nphases = 3
~ rmatrix = (0.01644 | 0.0006 0.01644 | 0.0006 0.0006 0.01644)
~ xmatrix = (0.01006 | 0.00478 0.01006 | 0.0045 0.00536 0.01006)
new linecode.LC16_17 nphases = 3
~ rmatrix = (0.03288 | 0.0012 0.03288 | 0.0012 0.0012 0.03288)
~ xmatrix = (0.02012 | 0.00956 0.02012 | 0.009 0.01072 0.02012)
new linecode.LC17_18 nphases = 3
~ rmatrix = (0.06576 | 0.0024 0.06576 | 0.0024 0.0024 0.06576)
~ xmatrix = (0.04024 | 0.01912 0.04024 | 0.018 0.02144 0.04024)
new linecode.LC18_19 nphases = 3
~ rmatrix = (0.04336 | 0.0024 0.04336 | 0.0024 0.0024 0.04336)
~ xmatrix = (0.03992 | 0.01912 0.03992 | 0.018 0.02144 0.03992)
new linecode.LC19_20 nphases = 3
~ rmatrix = (0.0542 | 0.003 0.0542 | 0.003 0.003 0.0542)
~ xmatrix = (0.0499 | 0.0239 0.0499 | 0.0225 0.0268 0.0499)
new linecode.LC20_21 nphases = 3
~ rmatrix = (0.1626 | 0.009 0.1626 | 0.009 0.009 0.1626)
~ xmatrix = (0.1497 | 0.0717 0.1497 | 0.0675 0.0804 0.1497)
new linecode.LC19_22 nphases = 3
~ rmatrix = (0.012816 | 0.0018 0.012816 | 0.0018 0.0018 0.012816)
~ xmatrix = (0.028827 | 0.01434 0.028827 | 0.0135 0.01608 0.028827)
new linecode.LC11_23 nphases = 3
~ rmatrix = (0.029904 | 0.0042 0.029904 | 0.0042 0.0042 0.029904)
~ xmatrix = (0.067263 | 0.03346 0.067263 | 0.0315 0.03752 0.067263)
new linecode.LC23_24 nphases = 3
~ rmatrix = (0.0822 | 0.003 0.0822 | 0.003 0.003 0.0822)
~ xmatrix = (0.0503 | 0.0239 0.0503 | 0.0225 0.0268 0.0503)
new linecode.LC24_25 nphases = 3
~ rmatrix = (0.03288 | 0.0012 0.03288 | 0.0012 0.0012 0.03288)
~ xmatrix = (0.02012 | 0.00956 0.02012 | 0.009 0.01072 0.02012)
new linecode.LC25_26 nphases = 3
~ rmatrix = (0.04932 | 0.0018 0.04932 | 0.0018 0.0018 0.04932)
~ xmatrix = (0.03018 | 0.01434 0.03018 | 0.0135 0.01608 0.03018)
new linecode.LC26_27 nphases = 3
~ rmatrix = (0.06504 | 0.0036 0.06504 | 0.0036 0.0036 0.06504)
~ xmatrix = (0.05988 | 0.02868 0.05988 | 0.027 0.03216 0.05988)
new linecode.LC27_28 nphases = 3
~ rmatrix = (0.04336 | 0.0024 0.04336 | 0.0024 0.0024 0.04336)
~ xmatrix = (0.03992 | 0.01912 0.03992 | 0.018 0.02144 0.03992)
new linecode.LC28_29 nphases = 3
~ rmatrix = (0.02168 | 0.0012 0.02168 | 0.0012 0.0012 0.02168)
~ xmatrix = (0.01996 | 0.00956 0.01996 | 0.009 0.01072 0.01996)
new linecode.LC29_30 nphases = 3
~ rmatrix = (0.13008 | 0.0072 0.13008 | 0.0072 0.0072 0.13008)
~ xmatrix = (0.11976 | 0.05736 0.11976 | 0.054 0.06432 0.11976)
new linecode.LC30_31 nphases = 3
~ rmatrix = (0.02168 | 0.0012 0.02168 | 0.0012 0.0012 0.02168)
~ xmatrix = (0.01996 | 0.00956 0.01996 | 0.009 0.01072 0.01996)
new linecode.LC29_32 nphases = 3
~ rmatrix = (0.03288 | 0.0012 0.03288 | 0.0012 0.0012 0.03288)
~ xmatrix = (0.02012 | 0.00956 0.02012 | 0.009 0.01072 0.02012)
new linecode.LC27_33 nphases = 3
~ rmatrix = (0.00822 | 0.0003 0.00822 | 0.0003 0.0003 0.00822)
~ xmatrix = (0.00503 | 0.00239 0.00503 | 0.00225 0.00268 0.00503)
new linecode.LC33_34 nphases = 3
~ rmatrix = (0.0411 | 0.0015 0.0411 | 0.0015 0.0015 0.0411)
~ xmatrix = (0.02515 | 0.01195 0.02515 | 0.01125 0.0134 0.02515)
new linecode.LC34_35 nphases = 3
~ rmatrix = (0.004272 | 0.0006 0.004272 | 0.0006 0.0006 0.004272)
~ xmatrix = (0.009609 | 0.00478 0.009609 | 0.0045 0.00536 0.009609)
new linecode.LC24_36 nphases = 3
~ rmatrix = (0.029904 | 0.0042 0.029904 | 0.0042 0.0042 0.029904)
~ xmatrix = (0.067263 | 0.03346 0.067263 | 0.0315 0.03752 0.067263)
new linecode.LC36_37 nphases = 3
~ rmatrix = (0.004272 | 0.0006 0.004272 | 0.0006 0.0006 0.004272)
~ xmatrix = (0.009609 | 0.00478 0.009609 | 0.0045 0.00536 0.009609)
new linecode.LC37_38 nphases = 3
~ rmatrix = (0.004272 | 0.0006 0.004272 | 0.0006 0.0006 0.004272)
~ xmatrix = (0.009609 | 0.00478 0.009609 | 0.0045 0.00536 0.009609)
new linecode.LC38_39 nphases = 3
~ rmatrix = (0.029904 | 0.0042 0.029904 | 0.0042 0.0042 0.029904)
~ xmatrix = (0.067263 | 0.03346 0.067263 | 0.0315 0.03752 0.067263)
new linecode.LC39_40 nphases = 3
~ rmatrix = (0.04272 | 0.006 0.04272 | 0.006 0.006 0.04272)
~ xmatrix = (0.09609 | 0.0478 0.09609 | 0.045 0.0536 0.09609)
new linecode.LC39_41 nphases = 3
~ rmatrix = (0.09864 | 0.0036 0.09864 | 0.0036 0.0036 0.09864)
~ xmatrix = (0.06036 | 0.02868 0.06036 | 0.027 0.03216 0.06036)
new linecode.LC41_42 nphases = 3
~ rmatrix = (0.0822 | 0.003 0.0822 | 0.003 0.003 0.0822)
~ xmatrix = (0.0503 | 0.0239 0.0503 | 0.0225 0.0268 0.0503)
new linecode.LC41_43 nphases = 3
~ rmatrix = (0.01644 | 0.0006 0.01644 | 0.0006 0.0006 0.01644)
~ xmatrix = (0.01006 | 0.00478 0.01006 | 0.0045 0.00536 0.01006)
new linecode.LC43_44 nphases = 3
~ rmatrix = (0.012816 | 0.0018 0.012816 | 0.0018 0.0018 0.012816)
~ xmatrix = (0.028827 | 0.01434 0.028827 | 0.0135 0.01608 0.028827)
new linecode.LC41_45 nphases = 3
~ rmatrix = (0.017088 | 0.0024 0.017088 | 0.0024 0.0024 0.017088)
~ xmatrix = (0.038436 | 0.01912 0.038436 | 0.018 0.02144 0.038436)
new linecode.LC45_46 nphases = 3
~ rmatrix = (0.025632 | 0.0036 0.025632 | 0.0036 0.0036 0.025632)
~ xmatrix = (0.057654 | 0.02868 0.057654 | 0.027 0.03216 0.057654)
new linecode.LC39_47 nphases = 3
~ rmatrix = (0.008544 | 0.0012 0.008544 | 0.0012 0.0012 0.008544)
~ xmatrix = (0.019218 | 0.00956 0.019218 | 0.009 0.01072 0.019218)
new linecode.LC47_48 nphases = 3
~ rmatrix = (0.051264 | 0.0072 0.051264 | 0.0072 0.0072 0.051264)
~ xmatrix = (0.115308 | 0.05736 0.115308 | 0.054 0.06432 0.115308)
new linecode.LC48_49 nphases = 3
~ rmatrix = (0.02136 | 0.003 0.02136 | 0.003 0.003 0.02136)
~ xmatrix = (0.048045 | 0.0239 0.048045 | 0.0225 0.0268 0.048045)
new linecode.LC49_50 nphases = 3
~ rmatrix = (0.008544 | 0.0012 0.008544 | 0.0012 0.0012 0.008544)
~ xmatrix = (0.019218 | 0.00956 0.019218 | 0.009 0.01072 0.019218)
new linecode.LC50_51 nphases = 3
~ rmatrix = (0.072624 | 0.0102 0.072624 | 0.0102 0.0102 0.072624)
~ xmatrix = (0.163353 | 0.08126 0.163353 | 0.0765 0.09112 0.163353)
new linecode.LC51_52 nphases = 3
~ rmatrix = (0.04272 | 0.006 0.04272 | 0.006 0.006 0.04272)
~ xmatrix = (0.09609 | 0.0478 0.09609 | 0.045 0.0536 0.09609)
new linecode.LC49_53 nphases = 3
~ rmatrix = (0.09864 | 0.0036 0.09864 | 0.0036 0.0036 0.09864)
~ xmatrix = (0.06036 | 0.02868 0.06036 | 0.027 0.03216 0.06036)
new linecode.LC53_54 nphases = 3
~ rmatrix = (0.04932 | 0.0018 0.04932 | 0.0018 0.0018 0.04932)
~ xmatrix = (0.03018 | 0.01434 0.03018 | 0.0135 0.01608 0.03018)
new linecode.LC54_55 nphases = 3
~ rmatrix = (0.21372 | 0.0078 0.21372 | 0.0078 0.0078 0.21372)
~ xmatrix = (0.13078 | 0.06214 0.13078 | 0.0585 0.06968 0.13078)
new linecode.LC55_56 nphases = 3
~ rmatrix = (0.03288 | 0.0012 0.03288 | 0.0012 0.0012 0.03288)
~ xmatrix = (0.02012 | 0.00956 0.02012 | 0.009 0.01072 0.02012)
new linecode.LC53_57 nphases = 3
~ rmatrix = (0.13152 | 0.0048 0.13152 | 0.0048 0.0048 0.13152)
~ xmatrix = (0.08048 | 0.03824 0.08048 | 0.036 0.04288 0.08048)
new linecode.LC57_58 nphases = 3
~ rmatrix = (0.0542 | 0.003 0.0542 | 0.003 0.003 0.0542)
~ xmatrix = (0.0499 | 0.0239 0.0499 | 0.0225 0.0268 0.0499)
new linecode.LC58_59 nphases = 3
~ rmatrix = (0.06504 | 0.0036 0.06504 | 0.0036 0.0036 0.06504)
~ xmatrix = (0.05988 | 0.02868 0.05988 | 0.027 0.03216 0.05988)
new linecode.LC58_60 nphases = 3
~ rmatrix = (0.02168 | 0.0012 0.02168 | 0.0012 0.0012 0.02168)
~ xmatrix = (0.01996 | 0.00956 0.01996 | 0.009 0.01072 0.01996)
new linecode.LC60_61 nphases = 3
~ rmatrix = (0.017088 | 0.0024 0.017088 | 0.0024 0.0024 0.017088)
~ xmatrix = (0.038436 | 0.01912 0.038436 | 0.018 0.02144 0.038436)
new linecode.LC49_62 nphases = 3
~ rmatrix = (0.004272 | 0.0006 0.004272 | 0.0006 0.0006 0.004272)
~ xmatrix = (0.009609 | 0.00478 0.009609 | 0.0045 0.00536 0.009609)
new linecode.LC62_63 nphases = 3
~ rmatrix = (0.02136 | 0.003 0.02136 | 0.003 0.003 0.02136)
~ xmatrix = (0.048045 | 0.0239 0.048045 | 0.0225 0.0268 0.048045)
new linecode.LC63_64 nphases = 3
~ rmatrix = (0.022701 | 0.0018 0.022701 | 0.0018 0.0018 0.022701)
~ xmatrix = (0.030201 | 0.01434 0.030201 | 0.0135 0.01608 0.030201)
new linecode.LC64_65 nphases = 3
~ rmatrix = (0.015134 | 0.0012 0.015134 | 0.0012 0.0012 0.015134)
~ xmatrix = (0.020134 | 0.00956 0.020134 | 0.009 0.01072 0.020134)
new linecode.LC65_66 nphases = 3
~ rmatrix = (0.022701 | 0.0018 0.022701 | 0.0018 0.0018 0.022701)
~ xmatrix = (0.030201 | 0.01434 0.030201 | 0.0135 0.01608 0.030201)
new linecode.LC66_67 nphases = 3
~ rmatrix = (0.015134 | 0.0012 0.015134 | 0.0012 0.0012 0.015134)
~ xmatrix = (0.020134 | 0.00956 0.020134 | 0.009 0.01072 0.020134)
new linecode.LC67_68 nphases = 3
~ rmatrix = (0.04932 | 0.0018 0.04932 | 0.0018 0.0018 0.04932)
~ xmatrix = (0.03018 | 0.01434 0.03018 | 0.0135 0.01608 0.03018)
new linecode.LC68_69 nphases = 3
~ rmatrix = (0.03288 | 0.0012 0.03288 | 0.0012 0.0012 0.03288)
~ xmatrix = (0.02012 | 0.00956 0.02012 | 0.009 0.01072 0.02012)
new linecode.LC68_70 nphases = 3
~ rmatrix = (0.03288 | 0.0012 0.03288 | 0.0012 0.0012 0.03288)
~ xmatrix = (0.02012 | 0.00956 0.02012 | 0.009 0.01072 0.02012)
new linecode.LC70_71 nphases = 3
~ rmatrix = (0.037835 | 0.003 0.037835 | 0.003 0.003 0.037835)
~ xmatrix = (0.050335 | 0.0239 0.050335 | 0.0225 0.0268 0.050335)
new linecode.LC68_72 nphases = 3
~ rmatrix = (0.030268 | 0.0024 0.030268 | 0.0024 0.0024 0.030268)
~ xmatrix = (0.040268 | 0.01912 0.040268 | 0.018 0.02144 0.040268)
new linecode.LC72_73 nphases = 3
~ rmatrix = (0.030268 | 0.0024 0.030268 | 0.0024 0.0024 0.030268)
~ xmatrix = (0.040268 | 0.01912 0.040268 | 0.018 0.02144 0.040268)
new linecode.LC73_74 nphases = 3
~ rmatrix = (0.015134 | 0.0012 0.015134 | 0.0012 0.0012 0.015134)
~ xmatrix = (0.020134 | 0.00956 0.020134 | 0.009 0.01072 0.020134)
new linecode.LC74_75 nphases = 3
~ rmatrix = (0.083237 | 0.0066 0.083237 | 0.0066 0.0066 0.083237)
~ xmatrix = (0.110737 | 0.05258 0.110737 | 0.0495 0.05896 0.110737)
new linecode.LC75_76 nphases = 3
~ rmatrix = (0.008544 | 0.0012 0.008544 | 0.0012 0.0012 0.008544)
~ xmatrix = (0.019218 | 0.00956 0.019218 | 0.009 0.01072 0.019218)
new linecode.LC64_77 nphases = 3
~ rmatrix = (0.012816 | 0.0018 0.012816 | 0.0018 0.0018 0.012816)
~ xmatrix = (0.028827 | 0.01434 0.028827 | 0.0135 0.01608 0.028827)
new linecode.LC77_78 nphases = 3
~ rmatrix = (0.02136 | 0.003 0.02136 | 0.003 0.003 0.02136)
~ xmatrix = (0.048045 | 0.0239 0.048045 | 0.0225 0.0268 0.048045)
new linecode.LC78_79 nphases = 3
~ rmatrix = (0.029904 | 0.0042 0.029904 | 0.0042 0.0042 0.029904)
~ xmatrix = (0.067263 | 0.03346 0.067263 | 0.0315 0.03752 0.067263)
new linecode.LC79_80 nphases = 3
~ rmatrix = (0.029904 | 0.0042 0.029904 | 0.0042 0.0042 0.029904)
~ xmatrix = (0.067263 | 0.03346 0.067263 | 0.0315 0.03752 0.067263)
new linecode.LC80_81 nphases = 3
~ rmatrix = (0.012816 | 0.0018 0.012816 | 0.0018 0.0018 0.012816)
~ xmatrix = (0.028827 | 0.01434 0.028827 | 0.0135 0.01608 0.028827)
new linecode.LC81_82 nphases = 3
~ rmatrix = (0.012816 | 0.0018 0.012816 | 0.0018 0.0018 0.012816)
~ xmatrix = (0.028827 | 0.01434 0.028827 | 0.0135 0.01608 0.028827)
new linecode.LC82_83 nphases = 3
~ rmatrix = (0.0822 | 0.003 0.0822 | 0.003 0.003 0.0822)
~ xmatrix = (0.0503 | 0.0239 0.0503 | 0.0225 0.0268 0.0503)
new linecode.LC83_84 nphases = 3
~ rmatrix = (0.02136 | 0.003 0.02136 | 0.003 0.003 0.02136)
~ xmatrix = (0.048045 | 0.0239 0.048045 | 0.0225 0.0268 0.048045)
new linecode.LC83_85 nphases = 3
~ rmatrix = (0.012816 | 0.0018 0.012816 | 0.0018 0.0018 0.012816)
~ xmatrix = (0.028827 | 0.01434 0.028827 | 0.0135 0.01608 0.028827)
new linecode.LC85_86 nphases = 3
~ rmatrix = (0.012816 | 0.0018 0.012816 | 0.0018 0.0018 0.012816)
~ xmatrix = (0.028827 | 0.01434 0.028827 | 0.0135 0.01608 0.028827)
new linecode.LC86_129 nphases = 3
~ rmatrix = (0.008544 | 0.0012 0.008544 | 0.0012 0.0012 0.008544)
~ xmatrix = (0.019218 | 0.00956 0.019218 | 0.009 0.01072 0.019218)
new linecode.LC129_87 nphases = 3
~ rmatrix = (0.14092 | 0.0078 0.14092 | 0.0078 0.0078 0.14092)
~ xmatrix = (0.12974 | 0.06214 0.12974 | 0.0585 0.06968 0.12974)
new linecode.LC87_88 nphases = 3
~ rmatrix = (0.002136 | 0.0003 0.002136 | 0.0003 0.0003 0.002136)
~ xmatrix = (0.004805 | 0.00239 0.004805 | 0.00225 0.00268 0.004805)
new linecode.LC79_89 nphases = 3
~ rmatrix = (0.02136 | 0.003 0.02136 | 0.003 0.003 0.02136)
~ xmatrix = (0.048045 | 0.0239 0.048045 | 0.0225 0.0268 0.048045)
new linecode.LC79_90 nphases = 3
~ rmatrix = (0.076896 | 0.0108 0.076896 | 0.0108 0.0108 0.076896)
~ xmatrix = (0.172962 | 0.08604 0.172962 | 0.081 0.09648 0.172962)
new linecode.LC90_91 nphases = 3
~ rmatrix = (0.008544 | 0.0012 0.008544 | 0.0012 0.0012 0.008544)
~ xmatrix = (0.019218 | 0.00956 0.019218 | 0.009 0.01072 0.019218)
new linecode.LC91_92 nphases = 3
~ rmatrix = (0.03252 | 0.0018 0.03252 | 0.0018 0.0018 0.03252)
~ xmatrix = (0.02994 | 0.01434 0.02994 | 0.0135 0.01608 0.02994)
new linecode.LC92_93 nphases = 3
~ rmatrix = (0.07588 | 0.0042 0.07588 | 0.0042 0.0042 0.07588)
~ xmatrix = (0.06986 | 0.03346 0.06986 | 0.0315 0.03752 0.06986)
new linecode.LC93_94 nphases = 3
~ rmatrix = (0.04272 | 0.006 0.04272 | 0.006 0.006 0.04272)
~ xmatrix = (0.09609 | 0.0478 0.09609 | 0.045 0.0536 0.09609)
new linecode.LC93_95 nphases = 3
~ rmatrix = (0.04336 | 0.0024 0.04336 | 0.0024 0.0024 0.04336)
~ xmatrix = (0.03992 | 0.01912 0.03992 | 0.018 0.02144 0.03992)
new linecode.LC93_96 nphases = 3
~ rmatrix = (0.0542 | 0.003 0.0542 | 0.003 0.003 0.0542)
~ xmatrix = (0.0499 | 0.0239 0.0499 | 0.0225 0.0268 0.0499)
new linecode.LC96_97 nphases = 3
~ rmatrix = (0.06504 | 0.0036 0.06504 | 0.0036 0.0036 0.06504)
~ xmatrix = (0.05988 | 0.02868 0.05988 | 0.027 0.03216 0.05988)
new linecode.LC96_98 nphases = 3
~ rmatrix = (0.18084 | 0.0066 0.18084 | 0.0066 0.0066 0.18084)
~ xmatrix = (0.11066 | 0.05258 0.11066 | 0.0495 0.05896 0.11066)
new linecode.LC98_99 nphases = 3
~ rmatrix = (0.04336 | 0.0024 0.04336 | 0.0024 0.0024 0.04336)
~ xmatrix = (0.03992 | 0.01912 0.03992 | 0.018 0.02144 0.03992)
new linecode.LC99_100 nphases = 3
~ rmatrix = (0.11924 | 0.0066 0.11924 | 0.0066 0.0066 0.11924)
~ xmatrix = (0.10978 | 0.05258 0.10978 | 0.0495 0.05896 0.10978)
new linecode.LC99_101 nphases = 3
~ rmatrix = (0.025632 | 0.0036 0.025632 | 0.0036 0.0036 0.025632)
~ xmatrix = (0.057654 | 0.02868 0.057654 | 0.027 0.03216 0.057654)
new linecode.LC101_102 nphases = 3
~ rmatrix = (0.017088 | 0.0024 0.017088 | 0.0024 0.0024 0.017088)
~ xmatrix = (0.038436 | 0.01912 0.038436 | 0.018 0.02144 0.038436)
new linecode.LC96_103 nphases = 3
~ rmatrix = (0.022701 | 0.0018 0.022701 | 0.0018 0.0018 0.022701)
~ xmatrix = (0.030201 | 0.01434 0.030201 | 0.0135 0.01608 0.030201)
new linecode.LC103_104 nphases = 3
~ rmatrix = (0.113505 | 0.009 0.113505 | 0.009 0.009 0.113505)
~ xmatrix = (0.151005 | 0.0717 0.151005 | 0.0675 0.0804 0.151005)
new linecode.LC104_105 nphases = 3
~ rmatrix = (0.158907 | 0.0126 0.158907 | 0.0126 0.0126 0.158907)
~ xmatrix = (0.211407 | 0.10038 0.211407 | 0.0945 0.11256 0.211407)
new linecode.LC104_106 nphases = 3
~ rmatrix = (0.022701 | 0.0018 0.022701 | 0.0018 0.0018 0.022701)
~ xmatrix = (0.030201 | 0.01434 0.030201 | 0.0135 0.01608 0.030201)
new linecode.LC106_107 nphases = 3
~ rmatrix = (0.07567 | 0.006 0.07567 | 0.006 0.006 0.07567)
~ xmatrix = (0.10067 | 0.0478 0.10067 | 0.045 0.0536 0.10067)
new linecode.LC107_108 nphases = 3
~ rmatrix = (0.1644 | 0.006 0.1644 | 0.006 0.006 0.1644)
~ xmatrix = (0.1006 | 0.0478 0.1006 | 0.045 0.0536 0.1006)
new linecode.LC108_109 nphases = 3
~ rmatrix = (0.04932 | 0.0018 0.04932 | 0.0018 0.0018 0.04932)
~ xmatrix = (0.03018 | 0.01434 0.03018 | 0.0135 0.01608 0.03018)
new linecode.LC109_110 nphases = 3
~ rmatrix = (0.03288 | 0.0012 0.03288 | 0.0012 0.0012 0.03288)
~ xmatrix = (0.02012 | 0.00956 0.02012 | 0.009 0.01072 0.02012)
new linecode.LC110_111 nphases = 3
~ rmatrix = (0.072624 | 0.0102 0.072624 | 0.0102 0.0102 0.072624)
~ xmatrix = (0.163353 | 0.08126 0.163353 | 0.0765 0.09112 0.163353)
new linecode.LC111_112 nphases = 3
~ rmatrix = (0.046992 | 0.0066 0.046992 | 0.0066 0.0066 0.046992)
~ xmatrix = (0.105699 | 0.05258 0.105699 | 0.0495 0.05896 0.105699)
new linecode.LC108_113 nphases = 3
~ rmatrix = (0.18084 | 0.0066 0.18084 | 0.0066 0.0066 0.18084)
~ xmatrix = (0.11066 | 0.05258 0.11066 | 0.0495 0.05896 0.11066)
new linecode.LC113_114 nphases = 3
~ rmatrix = (0.3288 | 0.012 0.3288 | 0.012 0.012 0.3288)
~ xmatrix = (0.2012 | 0.0956 0.2012 | 0.09 0.1072 0.2012)
new linecode.LC114_115 nphases = 3
~ rmatrix = (0.3288 | 0.012 0.3288 | 0.012 0.012 0.3288)
~ xmatrix = (0.2012 | 0.0956 0.2012 | 0.09 0.1072 0.2012)
new linecode.LC114_116 nphases = 3
~ rmatrix = (0.3288 | 0.012 0.3288 | 0.012 0.012 0.3288)
~ xmatrix = (0.2012 | 0.0956 0.2012 | 0.09 0.1072 0.2012)
new linecode.LC116_117 nphases = 3
~ rmatrix = (0.3288 | 0.012 0.3288 | 0.012 0.012 0.3288)
~ xmatrix = (0.2012 | 0.0956 0.2012 | 0.09 0.1072 0.2012)
new linecode.LC117_118 nphases = 3
~ rmatrix = (0.11924 | 0.0066 0.11924 | 0.0066 0.0066 0.11924)
~ xmatrix = (0.10978 | 0.05258 0.10978 | 0.0495 0.05896 0.10978)
new linecode.LC118_119 nphases = 3
~ rmatrix = (0.029904 | 0.0042 0.029904 | 0.0042 0.0042 0.029904)
~ xmatrix = (0.067263 | 0.03346 0.067263 | 0.0315 0.03752 0.067263)
new linecode.LC91_120 nphases = 3
~ rmatrix = (0.029904 | 0.0042 0.029904 | 0.0042 0.0042 0.029904)
~ xmatrix = (0.067263 | 0.03346 0.067263 | 0.0315 0.03752 0.067263)
new linecode.LC120_121 nphases = 3
~ rmatrix = (0.07588 | 0.0042 0.07588 | 0.0042 0.0042 0.07588)
~ xmatrix = (0.06986 | 0.03346 0.06986 | 0.0315 0.03752 0.06986)
new linecode.LC121_122 nphases = 3
~ rmatrix = (0.21372 | 0.0078 0.21372 | 0.0078 0.0078 0.21372)
~ xmatrix = (0.13078 | 0.06214 0.13078 | 0.0585 0.06968 0.13078)
new linecode.LC120_123 nphases = 3
~ rmatrix = (0.03288 | 0.0012 0.03288 | 0.0012 0.0012 0.03288)
~ xmatrix = (0.02012 | 0.00956 0.02012 | 0.009 0.01072 0.02012)
new linecode.LC123_124 nphases = 3
~ rmatrix = (0.03288 | 0.0012 0.03288 | 0.0012 0.0012 0.03288)
~ xmatrix = (0.02012 | 0.00956 0.02012 | 0.009 0.01072 0.02012)
new linecode.LC124_125 nphases = 3
~ rmatrix = (0.06576 | 0.0024 0.06576 | 0.0024 0.0024 0.06576)
~ xmatrix = (0.04024 | 0.01912 0.04024 | 0.018 0.02144 0.04024)
new linecode.LC124_126 nphases = 3
~ rmatrix = (0.06576 | 0.0024 0.06576 | 0.0024 0.0024 0.06576)
~ xmatrix = (0.04024 | 0.01912 0.04024 | 0.018 0.02144 0.04024)
new linecode.LC126_127 nphases = 3
~ rmatrix = (0.008544 | 0.0012 0.008544 | 0.0012 0.0012 0.008544)
~ xmatrix = (0.019218 | 0.00956 0.019218 | 0.009 0.01072 0.019218)
new linecode.LC127_128 nphases = 3
~ rmatrix = (0.06504 | 0.0036 0.06504 | 0.0036 0.0036 0.06504)
~ xmatrix = (0.05988 | 0.02868 0.05988 | 0.027 0.03216 0.05988)
new linecode.LC129_130 nphases = 3
~ rmatrix = (0.052969 | 0.0042 0.052969 | 0.0042 0.0042 0.052969)
~ xmatrix = (0.070469 | 0.03346 0.070469 | 0.0315 0.03752 0.070469)
new linecode.LC105_131 nphases = 3
~ rmatrix = (0.008544 | 0.0012 0.008544 | 0.0012 0.0012 0.008544)
~ xmatrix = (0.019218 | 0.00956 0.019218 | 0.009 0.01072 0.019218)
new linecode.LC131_132 nphases = 3
~ rmatrix = (0.07567 | 0.006 0.07567 | 0.006 0.006 0.07567)
~ xmatrix = (0.10067 | 0.0478 0.10067 | 0.045 0.0536 0.10067)
new linecode.LC131_133 nphases = 3
~ rmatrix = (0.030268 | 0.0024 0.030268 | 0.0024 0.0024 0.030268)
~ xmatrix = (0.040268 | 0.01912 0.040268 | 0.018 0.02144 0.040268)
new linecode.LC133_134 nphases = 3
~ rmatrix = (0.030268 | 0.0024 0.030268 | 0.0024 0.0024 0.030268)
~ xmatrix = (0.040268 | 0.01912 0.040268 | 0.018 0.02144 0.040268)
new linecode.LC134_135 nphases = 3
~ rmatrix = (0.030268 | 0.0024 0.030268 | 0.0024 0.0024 0.030268)
~ xmatrix = (0.040268 | 0.01912 0.040268 | 0.018 0.02144 0.040268)
new linecode.LC2_202 nphases = 3
~ rmatrix = (0.38448 | 0.054 0.38448 | 0.054 0.054 0.38448)
~ xmatrix = (0.86481 | 0.4302 0.86481 | 0.405 0.4824 0.86481)
new linecode.LC202_203 nphases = 3
~ rmatrix = (0.0542 | 0.003 0.0542 | 0.003 0.003 0.0542)
~ xmatrix = (0.0499 | 0.0239 0.0499 | 0.0225 0.0268 0.0499)
new linecode.LC203_204 nphases = 3
~ rmatrix = (0.04272 | 0.006 0.04272 | 0.006 0.006 0.04272)
~ xmatrix = (0.09609 | 0.0478 0.09609 | 0.045 0.0536 0.09609)
new linecode.LC203_205 nphases = 3
~ rmatrix = (0.017088 | 0.0024 0.017088 | 0.0024 0.0024 0.017088)
~ xmatrix = (0.038436 | 0.01912 0.038436 | 0.018 0.02144 0.038436)
new linecode.LC205_206 nphases = 3
~ rmatrix = (0.08544 | 0.012 0.08544 | 0.012 0.012 0.08544)
~ xmatrix = (0.19218 | 0.0956 0.19218 | 0.09 0.1072 0.19218)
new linecode.LC206_207 nphases = 3
~ rmatrix = (0.08544 | 0.012 0.08544 | 0.012 0.012 0.08544)
~ xmatrix = (0.19218 | 0.0956 0.19218 | 0.09 0.1072 0.19218)
new linecode.LC207_208 nphases = 3
~ rmatrix = (0.08544 | 0.012 0.08544 | 0.012 0.012 0.08544)
~ xmatrix = (0.19218 | 0.0956 0.19218 | 0.09 0.1072 0.19218)
new linecode.LC208_209 nphases = 3
~ rmatrix = (0.004272 | 0.0006 0.004272 | 0.0006 0.0006 0.004272)
~ xmatrix = (0.009609 | 0.00478 0.009609 | 0.0045 0.00536 0.009609)
new linecode.LC209_2010 nphases = 3
~ rmatrix = (0.02136 | 0.003 0.02136 | 0.003 0.003 0.02136)
~ xmatrix = (0.048045 | 0.0239 0.048045 | 0.0225 0.0268 0.048045)
new linecode.LC2010_2011 nphases = 3
~ rmatrix = (0.1644 | 0.006 0.1644 | 0.006 0.006 0.1644)
~ xmatrix = (0.1006 | 0.0478 0.1006 | 0.045 0.0536 0.1006)
new linecode.LC2011_2012 nphases = 3
~ rmatrix = (0.09864 | 0.0036 0.09864 | 0.0036 0.0036 0.09864)
~ xmatrix = (0.06036 | 0.02868 0.06036 | 0.027 0.03216 0.06036)
new linecode.LC2012_2013 nphases = 3
~ rmatrix = (0.04932 | 0.0018 0.04932 | 0.0018 0.0018 0.04932)
~ xmatrix = (0.03018 | 0.01434 0.03018 | 0.0135 0.01608 0.03018)
new linecode.LC2013_2014 nphases = 3
~ rmatrix = (0.26304 | 0.0096 0.26304 | 0.0096 0.0096 0.26304)
~ xmatrix = (0.16096 | 0.07648 0.16096 | 0.072 0.08576 0.16096)
new linecode.LC2014_2015 nphases = 3
~ rmatrix = (0.04932 | 0.0018 0.04932 | 0.0018 0.0018 0.04932)
~ xmatrix = (0.03018 | 0.01434 0.03018 | 0.0135 0.01608 0.03018)
new linecode.LC2012_2016 nphases = 3
~ rmatrix = (0.01644 | 0.0006 0.01644 | 0.0006 0.0006 0.01644)
~ xmatrix = (0.01006 | 0.00478 0.01006 | 0.0045 0.00536 0.01006)
new linecode.LC2016_2017 nphases = 3
~ rmatrix = (0.03288 | 0.0012 0.03288 | 0.0012 0.0012 0.03288)
~ xmatrix = (0.02012 | 0.00956 0.02012 | 0.009 0.01072 0.02012)
new linecode.LC2017_2018 nphases = 3
~ rmatrix = (0.06576 | 0.0024 0.06576 | 0.0024 0.0024 0.06576)
~ xmatrix = (0.04024 | 0.01912 0.04024 | 0.018 0.02144 0.04024)
new linecode.LC2018_2019 nphases = 3
~ rmatrix = (0.04336 | 0.0024 0.04336 | 0.0024 0.0024 0.04336)
~ xmatrix = (0.03992 | 0.01912 0.03992 | 0.018 0.02144 0.03992)
new linecode.LC2019_2020 nphases = 3
~ rmatrix = (0.0542 | 0.003 0.0542 | 0.003 0.003 0.0542)
~ xmatrix = (0.0499 | 0.0239 0.0499 | 0.0225 0.0268 0.0499)
new linecode.LC2020_2021 nphases = 3
~ rmatrix = (0.1626 | 0.009 0.1626 | 0.009 0.009 0.1626)
~ xmatrix = (0.1497 | 0.0717 0.1497 | 0.0675 0.0804 0.1497)
new linecode.LC2019_2022 nphases = 3
~ rmatrix = (0.012816 | 0.0018 0.012816 | 0.0018 0.0018 0.012816)
~ xmatrix = (0.028827 | 0.01434 0.028827 | 0.0135 0.01608 0.028827)
new linecode.LC2011_2023 nphases = 3
~ rmatrix = (0.029904 | 0.0042 0.029904 | 0.0042 0.0042 0.029904)
~ xmatrix = (0.067263 | 0.03346 0.067263 | 0.0315 0.03752 0.067263)
new linecode.LC2023_2024 nphases = 3
~ rmatrix = (0.0822 | 0.003 0.0822 | 0.003 0.003 0.0822)
~ xmatrix = (0.0503 | 0.0239 0.0503 | 0.0225 0.0268 0.0503)
new linecode.LC2024_2025 nphases = 3
~ rmatrix = (0.03288 | 0.0012 0.03288 | 0.0012 0.0012 0.03288)
~ xmatrix = (0.02012 | 0.00956 0.02012 | 0.009 0.01072 0.02012)
new linecode.LC2025_2026 nphases = 3
~ rmatrix = (0.04932 | 0.0018 0.04932 | 0.0018 0.0018 0.04932)
~ xmatrix = (0.03018 | 0.01434 0.03018 | 0.0135 0.01608 0.03018)
new linecode.LC2026_2027 nphases = 3
~ rmatrix = (0.06504 | 0.0036 0.06504 | 0.0036 0.0036 0.06504)
~ xmatrix = (0.05988 | 0.02868 0.05988 | 0.027 0.03216 0.05988)
new linecode.LC2027_2028 nphases = 3
~ rmatrix = (0.04336 | 0.0024 0.04336 | 0.0024 0.0024 0.04336)
~ xmatrix = (0.03992 | 0.01912 0.03992 | 0.018 0.02144 0.03992)
new linecode.LC2028_2029 nphases = 3
~ rmatrix = (0.02168 | 0.0012 0.02168 | 0.0012 0.0012 0.02168)
~ xmatrix = (0.01996 | 0.00956 0.01996 | 0.009 0.01072 0.01996)
new linecode.LC2029_2030 nphases = 3
~ rmatrix = (0.13008 | 0.0072 0.13008 | 0.0072 0.0072 0.13008)
~ xmatrix = (0.11976 | 0.05736 0.11976 | 0.054 0.06432 0.11976)
new linecode.LC2030_2031 nphases = 3
~ rmatrix = (0.02168 | 0.0012 0.02168 | 0.0012 0.0012 0.02168)
~ xmatrix = (0.01996 | 0.00956 0.01996 | 0.009 0.01072 0.01996)
new linecode.LC2029_2032 nphases = 3
~ rmatrix = (0.03288 | 0.0012 0.03288 | 0.0012 0.0012 0.03288)
~ xmatrix = (0.02012 | 0.00956 0.02012 | 0.009 0.01072 0.02012)
new linecode.LC2027_2033 nphases = 3
~ rmatrix = (0.00822 | 0.0003 0.00822 | 0.0003 0.0003 0.00822)
~ xmatrix = (0.00503 | 0.00239 0.00503 | 0.00225 0.00268 0.00503)
new linecode.LC2033_2034 nphases = 3
~ rmatrix = (0.0411 | 0.0015 0.0411 | 0.0015 0.0015 0.0411)
~ xmatrix = (0.02515 | 0.01195 0.02515 | 0.01125 0.0134 0.02515)
new linecode.LC2034_2035 nphases = 3
~ rmatrix = (0.004272 | 0.0006 0.004272 | 0.0006 0.0006 0.004272)
~ xmatrix = (0.009609 | 0.00478 0.009609 | 0.0045 0.00536 0.009609)
new linecode.LC2024_2036 nphases = 3
~ rmatrix = (0.029904 | 0.0042 0.029904 | 0.0042 0.0042 0.029904)
~ xmatrix = (0.067263 | 0.03346 0.067263 | 0.0315 0.03752 0.067263)
new linecode.LC2036_2037 nphases = 3
~ rmatrix = (0.004272 | 0.0006 0.004272 | 0.0006 0.0006 0.004272)
~ xmatrix = (0.009609 | 0.00478 0.009609 | 0.0045 0.00536 0.009609)
new linecode.LC2037_2038 nphases = 3
~ rmatrix = (0.004272 | 0.0006 0.004272 | 0.0006 0.0006 0.004272)
~ xmatrix = (0.009609 | 0.00478 0.009609 | 0.0045 0.00536 0.009609)
new linecode.LC2038_2039 nphases = 3
~ rmatrix = (0.029904 | 0.0042 0.029904 | 0.0042 0.0042 0.029904)
~ xmatrix = (0.067263 | 0.03346 0.067263 | 0.0315 0.03752 0.067263)
new linecode.LC2039_2040 nphases = 3
~ rmatrix = (0.04272 | 0.006 0.04272 | 0.006 0.006 0.04272)
~ xmatrix = (0.09609 | 0.0478 0.09609 | 0.045 0.0536 0.09609)
new linecode.LC2039_2041 nphases = 3
~ rmatrix = (0.09864 | 0.0036 0.09864 | 0.0036 0.0036 0.09864)
~ xmatrix = (0.06036 | 0.02868 0.06036 | 0.027 0.03216 0.06036)
new linecode.LC2041_2042 nphases = 3
~ rmatrix = (0.0822 | 0.003 0.0822 | 0.003 0.003 0.0822)
~ xmatrix = (0.0503 | 0.0239 0.0503 | 0.0225 0.0268 0.0503)
new linecode.LC2041_2043 nphases = 3
~ rmatrix = (0.01644 | 0.0006 0.01644 | 0.0006 0.0006 0.01644)
~ xmatrix = (0.01006 | 0.00478 0.01006 | 0.0045 0.00536 0.01006)
new linecode.LC2043_2044 nphases = 3
~ rmatrix = (0.012816 | 0.0018 0.012816 | 0.0018 0.0018 0.012816)
~ xmatrix = (0.028827 | 0.01434 0.028827 | 0.0135 0.01608 0.028827)
new linecode.LC2041_2045 nphases = 3
~ rmatrix = (0.017088 | 0.0024 0.017088 | 0.0024 0.0024 0.017088)
~ xmatrix = (0.038436 | 0.01912 0.038436 | 0.018 0.02144 0.038436)
new linecode.LC2045_2046 nphases = 3
~ rmatrix = (0.025632 | 0.0036 0.025632 | 0.0036 0.0036 0.025632)
~ xmatrix = (0.057654 | 0.02868 0.057654 | 0.027 0.03216 0.057654)
new linecode.LC2039_2047 nphases = 3
~ rmatrix = (0.008544 | 0.0012 0.008544 | 0.0012 0.0012 0.008544)
~ xmatrix = (0.019218 | 0.00956 0.019218 | 0.009 0.01072 0.019218)
new linecode.LC2047_2048 nphases = 3
~ rmatrix = (0.051264 | 0.0072 0.051264 | 0.0072 0.0072 0.051264)
~ xmatrix = (0.115308 | 0.05736 0.115308 | 0.054 0.06432 0.115308)
new linecode.LC2048_2049 nphases = 3
~ rmatrix = (0.02136 | 0.003 0.02136 | 0.003 0.003 0.02136)
~ xmatrix = (0.048045 | 0.0239 0.048045 | 0.0225 0.0268 0.048045)
new linecode.LC2049_2050 nphases = 3
~ rmatrix = (0.008544 | 0.0012 0.008544 | 0.0012 0.0012 0.008544)
~ xmatrix = (0.019218 | 0.00956 0.019218 | 0.009 0.01072 0.019218)
new linecode.LC2050_2051 nphases = 3
~ rmatrix = (0.072624 | 0.0102 0.072624 | 0.0102 0.0102 0.072624)
~ xmatrix = (0.163353 | 0.08126 0.163353 | 0.0765 0.09112 0.163353)
new linecode.LC2051_2052 nphases = 3
~ rmatrix = (0.04272 | 0.006 0.04272 | 0.006 0.006 0.04272)
~ xmatrix = (0.09609 | 0.0478 0.09609 | 0.045 0.0536 0.09609)
new linecode.LC2049_2053 nphases = 3
~ rmatrix = (0.09864 | 0.0036 0.09864 | 0.0036 0.0036 0.09864)
~ xmatrix = (0.06036 | 0.02868 0.06036 | 0.027 0.03216 0.06036)
new linecode.LC2053_2054 nphases = 3
~ rmatrix = (0.04932 | 0.0018 0.04932 | 0.0018 0.0018 0.04932)
~ xmatrix = (0.03018 | 0.01434 0.03018 | 0.0135 0.01608 0.03018)
new linecode.LC2054_2055 nphases = 3
~ rmatrix = (0.21372 | 0.0078 0.21372 | 0.0078 0.0078 0.21372)
~ xmatrix = (0.13078 | 0.06214 0.13078 | 0.0585 0.06968 0.13078)
new linecode.LC2055_2056 nphases = 3
~ rmatrix = (0.03288 | 0.0012 0.03288 | 0.0012 0.0012 0.03288)
~ xmatrix = (0.02012 | 0.00956 0.02012 | 0.009 0.01072 0.02012)
new linecode.LC2053_2057 nphases = 3
~ rmatrix = (0.13152 | 0.0048 0.13152 | 0.0048 0.0048 0.13152)
~ xmatrix = (0.08048 | 0.03824 0.08048 | 0.036 0.04288 0.08048)
new linecode.LC2057_2058 nphases = 3
~ rmatrix = (0.0542 | 0.003 0.0542 | 0.003 0.003 0.0542)
~ xmatrix = (0.0499 | 0.0239 0.0499 | 0.0225 0.0268 0.0499)
new linecode.LC2058_2059 nphases = 3
~ rmatrix = (0.06504 | 0.0036 0.06504 | 0.0036 0.0036 0.06504)
~ xmatrix = (0.05988 | 0.02868 0.05988 | 0.027 0.03216 0.05988)
new linecode.LC2058_2060 nphases = 3
~ rmatrix = (0.02168 | 0.0012 0.02168 | 0.0012 0.0012 0.02168)
~ xmatrix = (0.01996 | 0.00956 0.01996 | 0.009 0.01072 0.01996)
new linecode.LC2060_2061 nphases = 3
~ rmatrix = (0.017088 | 0.0024 0.017088 | 0.0024 0.0024 0.017088)
~ xmatrix = (0.038436 | 0.01912 0.038436 | 0.018 0.02144 0.038436)
new linecode.LC2049_2062 nphases = 3
~ rmatrix = (0.004272 | 0.0006 0.004272 | 0.0006 0.0006 0.004272)
~ xmatrix = (0.009609 | 0.00478 0.009609 | 0.0045 0.00536 0.009609)
new linecode.LC2062_2063 nphases = 3
~ rmatrix = (0.02136 | 0.003 0.02136 | 0.003 0.003 0.02136)
~ xmatrix = (0.048045 | 0.0239 0.048045 | 0.0225 0.0268 0.048045)
new linecode.LC2063_2064 nphases = 3
~ rmatrix = (0.022701 | 0.0018 0.022701 | 0.0018 0.0018 0.022701)
~ xmatrix = (0.030201 | 0.01434 0.030201 | 0.0135 0.01608 0.030201)
new linecode.LC2064_2065 nphases = 3
~ rmatrix = (0.015134 | 0.0012 0.015134 | 0.0012 0.0012 0.015134)
~ xmatrix = (0.020134 | 0.00956 0.020134 | 0.009 0.01072 0.020134)
new linecode.LC2065_2066 nphases = 3
~ rmatrix = (0.022701 | 0.0018 0.022701 | 0.0018 0.0018 0.022701)
~ xmatrix = (0.030201 | 0.01434 0.030201 | 0.0135 0.01608 0.030201)
new linecode.LC2066_2067 nphases = 3
~ rmatrix = (0.015134 | 0.0012 0.015134 | 0.0012 0.0012 0.015134)
~ xmatrix = (0.020134 | 0.00956 0.020134 | 0.009 0.01072 0.020134)
new linecode.LC2067_2068 nphases = 3
~ rmatrix = (0.04932 | 0.0018 0.04932 | 0.0018 0.0018 0.04932)
~ xmatrix = (0.03018 | 0.01434 0.03018 | 0.0135 0.01608 0.03018)
new linecode.LC2068_2069 nphases = 3
~ rmatrix = (0.03288 | 0.0012 0.03288 | 0.0012 0.0012 0.03288)
~ xmatrix = (0.02012 | 0.00956 0.02012 | 0.009 0.01072 0.02012)
new linecode.LC2068_2070 nphases = 3
~ rmatrix = (0.03288 | 0.0012 0.03288 | 0.0012 0.0012 0.03288)
~ xmatrix = (0.02012 | 0.00956 0.02012 | 0.009 0.01072 0.02012)
new linecode.LC2070_2071 nphases = 3
~ rmatrix = (0.037835 | 0.003 0.037835 | 0.003 0.003 0.037835)
~ xmatrix = (0.050335 | 0.0239 0.050335 | 0.0225 0.0268 0.050335)
new linecode.LC2068_2072 nphases = 3
~ rmatrix = (0.030268 | 0.0024 0.030268 | 0.0024 0.0024 0.030268)
~ xmatrix = (0.040268 | 0.01912 0.040268 | 0.018 0.02144 0.040268)
new linecode.LC2072_2073 nphases = 3
~ rmatrix = (0.030268 | 0.0024 0.030268 | 0.0024 0.0024 0.030268)
~ xmatrix = (0.040268 | 0.01912 0.040268 | 0.018 0.02144 0.040268)
new linecode.LC2073_2074 nphases = 3
~ rmatrix = (0.015134 | 0.0012 0.015134 | 0.0012 0.0012 0.015134)
~ xmatrix = (0.020134 | 0.00956 0.020134 | 0.009 0.01072 0.020134)
new linecode.LC2074_2075 nphases = 3
~ rmatrix = (0.083237 | 0.0066 0.083237 | 0.0066 0.0066 0.083237)
~ xmatrix = (0.110737 | 0.05258 0.110737 | 0.0495 0.05896 0.110737)
new linecode.LC2075_2076 nphases = 3
~ rmatrix = (0.008544 | 0.0012 0.008544 | 0.0012 0.0012 0.008544)
~ xmatrix = (0.019218 | 0.00956 0.019218 | 0.009 0.01072 0.019218)
new linecode.LC2064_2077 nphases = 3
~ rmatrix = (0.012816 | 0.0018 0.012816 | 0.0018 0.0018 0.012816)
~ xmatrix = (0.028827 | 0.01434 0.028827 | 0.0135 0.01608 0.028827)
new linecode.LC2077_2078 nphases = 3
~ rmatrix = (0.02136 | 0.003 0.02136 | 0.003 0.003 0.02136)
~ xmatrix = (0.048045 | 0.0239 0.048045 | 0.0225 0.0268 0.048045)
new linecode.LC2078_2079 nphases = 3
~ rmatrix = (0.029904 | 0.0042 0.029904 | 0.0042 0.0042 0.029904)
~ xmatrix = (0.067263 | 0.03346 0.067263 | 0.0315 0.03752 0.067263)
new linecode.LC2079_2080 nphases = 3
~ rmatrix = (0.029904 | 0.0042 0.029904 | 0.0042 0.0042 0.029904)
~ xmatrix = (0.067263 | 0.03346 0.067263 | 0.0315 0.03752 0.067263)
new linecode.LC2080_2081 nphases = 3
~ rmatrix = (0.012816 | 0.0018 0.012816 | 0.0018 0.0018 0.012816)
~ xmatrix = (0.028827 | 0.01434 0.028827 | 0.0135 0.01608 0.028827)
new linecode.LC2081_2082 nphases = 3
~ rmatrix = (0.012816 | 0.0018 0.012816 | 0.0018 0.0018 0.012816)
~ xmatrix = (0.028827 | 0.01434 0.028827 | 0.0135 0.01608 0.028827)
new linecode.LC2082_2083 nphases = 3
~ rmatrix = (0.0822 | 0.003 0.0822 | 0.003 0.003 0.0822)
~ xmatrix = (0.0503 | 0.0239 0.0503 | 0.0225 0.0268 0.0503)
new linecode.LC2083_2084 nphases = 3
~ rmatrix = (0.02136 | 0.003 0.02136 | 0.003 0.003 0.02136)
~ xmatrix = (0.048045 | 0.0239 0.048045 | 0.0225 0.0268 0.048045)
new linecode.LC2083_2085 nphases = 3
~ rmatrix = (0.012816 | 0.0018 0.012816 | 0.0018 0.0018 0.012816)
~ xmatrix = (0.028827 | 0.01434 0.028827 | 0.0135 0.01608 0.028827)
new linecode.LC2085_2086 nphases = 3
~ rmatrix = (0.012816 | 0.0018 0.012816 | 0.0018 0.0018 0.012816)
~ xmatrix = (0.028827 | 0.01434 0.028827 | 0.0135 0.01608 0.028827)
new linecode.LC2086_20129 nphases = 3
~ rmatrix = (0.008544 | 0.0012 0.008544 | 0.0012 0.0012 0.008544)
~ xmatrix = (0.019218 | 0.00956 0.019218 | 0.009 0.01072 0.019218)
new linecode.LC20129_2087 nphases = 3
~ rmatrix = (0.14092 | 0.0078 0.14092 | 0.0078 0.0078 0.14092)
~ xmatrix = (0.12974 | 0.06214 0.12974 | 0.0585 0.06968 0.12974)
new linecode.LC2087_2088 nphases = 3
~ rmatrix = (0.002136 | 0.0003 0.002136 | 0.0003 0.0003 0.002136)
~ xmatrix = (0.004805 | 0.00239 0.004805 | 0.00225 0.00268 0.004805)
new linecode.LC2079_2089 nphases = 3
~ rmatrix = (0.02136 | 0.003 0.02136 | 0.003 0.003 0.02136)
~ xmatrix = (0.048045 | 0.0239 0.048045 | 0.0225 0.0268 0.048045)
new linecode.LC2079_2090 nphases = 3
~ rmatrix = (0.076896 | 0.0108 0.076896 | 0.0108 0.0108 0.076896)
~ xmatrix = (0.172962 | 0.08604 0.172962 | 0.081 0.09648 0.172962)
new linecode.LC2090_2091 nphases = 3
~ rmatrix = (0.008544 | 0.0012 0.008544 | 0.0012 0.0012 0.008544)
~ xmatrix = (0.019218 | 0.00956 0.019218 | 0.009 0.01072 0.019218)
new linecode.LC2091_2092 nphases = 3
~ rmatrix = (0.03252 | 0.0018 0.03252 | 0.0018 0.0018 0.03252)
~ xmatrix = (0.02994 | 0.01434 0.02994 | 0.0135 0.01608 0.02994)
new linecode.LC2092_2093 nphases = 3
~ rmatrix = (0.07588 | 0.0042 0.07588 | 0.0042 0.0042 0.07588)
~ xmatrix = (0.06986 | 0.03346 0.06986 | 0.0315 0.03752 0.06986)
new linecode.LC2093_2094 nphases = 3
~ rmatrix = (0.04272 | 0.006 0.04272 | 0.006 0.006 0.04272)
~ xmatrix = (0.09609 | 0.0478 0.09609 | 0.045 0.0536 0.09609)
new linecode.LC2093_2095 nphases = 3
~ rmatrix = (0.04336 | 0.0024 0.04336 | 0.0024 0.0024 0.04336)
~ xmatrix = (0.03992 | 0.01912 0.03992 | 0.018 0.02144 0.03992)
new linecode.LC2093_2096 nphases = 3
~ rmatrix = (0.0542 | 0.003 0.0542 | 0.003 0.003 0.0542)
~ xmatrix = (0.0499 | 0.0239 0.0499 | 0.0225 0.0268 0.0499)
new linecode.LC2096_2097 nphases = 3
~ rmatrix = (0.06504 | 0.0036 0.06504 | 0.0036 0.0036 0.06504)
~ xmatrix = (0.05988 | 0.02868 0.05988 | 0.027 0.03216 0.05988)
new linecode.LC2096_2098 nphases = 3
~ rmatrix = (0.18084 | 0.0066 0.18084 | 0.0066 0.0066 0.18084)
~ xmatrix = (0.11066 | 0.05258 0.11066 | 0.0495 0.05896 0.11066)
new linecode.LC2098_2099 nphases = 3
~ rmatrix = (0.04336 | 0.0024 0.04336 | 0.0024 0.0024 0.04336)
~ xmatrix = (0.03992 | 0.01912 0.03992 | 0.018 0.02144 0.03992)
new linecode.LC2099_20100 nphases = 3
~ rmatrix = (0.11924 | 0.0066 0.11924 | 0.0066 0.0066 0.11924)
~ xmatrix = (0.10978 | 0.05258 0.10978 | 0.0495 0.05896 0.10978)
new linecode.LC2099_20101 nphases = 3
~ rmatrix = (0.025632 | 0.0036 0.025632 | 0.0036 0.0036 0.025632)
~ xmatrix = (0.057654 | 0.02868 0.057654 | 0.027 0.03216 0.057654)
new linecode.LC20101_20102 nphases = 3
~ rmatrix = (0.017088 | 0.0024 0.017088 | 0.0024 0.0024 0.017088)
~ xmatrix = (0.038436 | 0.01912 0.038436 | 0.018 0.02144 0.038436)
new linecode.LC2096_20103 nphases = 3
~ rmatrix = (0.022701 | 0.0018 0.022701 | 0.0018 0.0018 0.022701)
~ xmatrix = (0.030201 | 0.01434 0.030201 | 0.0135 0.01608 0.030201)
new linecode.LC20103_20104 nphases = 3
~ rmatrix = (0.113505 | 0.009 0.113505 | 0.009 0.009 0.113505)
~ xmatrix = (0.151005 | 0.0717 0.151005 | 0.0675 0.0804 0.151005)
new linecode.LC20104_20105 nphases = 3
~ rmatrix = (0.158907 | 0.0126 0.158907 | 0.0126 0.0126 0.158907)
~ xmatrix = (0.211407 | 0.10038 0.211407 | 0.0945 0.11256 0.211407)
new linecode.LC20104_20106 nphases = 3
~ rmatrix = (0.022701 | 0.0018 0.022701 | 0.0018 0.0018 0.022701)
~ xmatrix = (0.030201 | 0.01434 0.030201 | 0.0135 0.01608 0.030201)
new linecode.LC20106_20107 nphases = 3
~ rmatrix = (0.07567 | 0.006 0.07567 | 0.006 0.006 0.07567)
~ xmatrix = (0.10067 | 0.0478 0.10067 | 0.045 0.0536 0.10067)
new linecode.LC20107_20108 nphases = 3
~ rmatrix = (0.1644 | 0.006 0.1644 | 0.006 0.006 0.1644)
~ xmatrix = (0.1006 | 0.0478 0.1006 | 0.045 0.0536 0.1006)
new linecode.LC20108_20109 nphases = 3
~ rmatrix = (0.04932 | 0.0018 0.04932 | 0.0018 0.0018 0.04932)
~ xmatrix = (0.03018 | 0.01434 0.03018 | 0.0135 0.01608 0.03018)
new linecode.LC20109_20110 nphases = 3
~ rmatrix = (0.03288 | 0.0012 0.03288 | 0.0012 0.0012 0.03288)
~ xmatrix = (0.02012 | 0.00956 0.02012 | 0.009 0.01072 0.02012)
new linecode.LC20110_20111 nphases = 3
~ rmatrix = (0.072624 | 0.0102 0.072624 | 0.0102 0.0102 0.072624)
~ xmatrix = (0.163353 | 0.08126 0.163353 | 0.0765 0.09112 0.163353)
new linecode.LC20111_20112 nphases = 3
~ rmatrix = (0.046992 | 0.0066 0.046992 | 0.0066 0.0066 0.046992)
~ xmatrix = (0.105699 | 0.05258 0.105699 | 0.0495 0.05896 0.105699)
new linecode.LC20108_20113 nphases = 3
~ rmatrix = (0.18084 | 0.0066 0.18084 | 0.0066 0.0066 0.18084)
~ xmatrix = (0.11066 | 0.05258 0.11066 | 0.0495 0.05896 0.11066)
new linecode.LC20113_20114 nphases = 3
~ rmatrix = (0.3288 | 0.012 0.3288 | 0.012 0.012 0.3288)
~ xmatrix = (0.2012 | 0.0956 0.2012 | 0.09 0.1072 0.2012)
new linecode.LC20114_20115 nphases = 3
~ rmatrix = (0.3288 | 0.012 0.3288 | 0.012 0.012 0.3288)
~ xmatrix = (0.2012 | 0.0956 0.2012 | 0.09 0.1072 0.2012)
new linecode.LC20114_20116 nphases = 3
~ rmatrix = (0.3288 | 0.012 0.3288 | 0.012 0.012 0.3288)
~ xmatrix = (0.2012 | 0.0956 0.2012 | 0.09 0.1072 0.2012)
new linecode.LC20116_20117 nphases = 3
~ rmatrix = (0.3288 | 0.012 0.3288 | 0.012 0.012 0.3288)
~ xmatrix = (0.2012 | 0.0956 0.2012 | 0.09 0.1072 0.2012)
new linecode.LC20117_20118 nphases = 3
~ rmatrix = (0.11924 | 0.0066 0.11924 | 0.0066 0.0066 0.11924)
~ xmatrix = (0.10978 | 0.05258 0.10978 | 0.0495 0.05896 0.10978)
new linecode.LC20118_20119 nphases = 3
~ rmatrix = (0.029904 | 0.0042 0.029904 | 0.0042 0.0042 0.029904)
~ xmatrix = (0.067263 | 0.03346 0.067263 | 0.0315 0.03752 0.067263)
new linecode.LC2091_20120 nphases = 3
~ rmatrix = (0.029904 | 0.0042 0.029904 | 0.0042 0.0042 0.029904)
~ xmatrix = (0.067263 | 0.03346 0.067263 | 0.0315 0.03752 0.067263)
new linecode.LC20120_20121 nphases = 3
~ rmatrix = (0.07588 | 0.0042 0.07588 | 0.0042 0.0042 0.07588)
~ xmatrix = (0.06986 | 0.03346 0.06986 | 0.0315 0.03752 0.06986)
new linecode.LC20121_20122 nphases = 3
~ rmatrix = (0.21372 | 0.0078 0.21372 | 0.0078 0.0078 0.21372)
~ xmatrix = (0.13078 | 0.06214 0.13078 | 0.0585 0.06968 0.13078)
new linecode.LC20120_20123 nphases = 3
~ rmatrix = (0.03288 | 0.0012 0.03288 | 0.0012 0.0012 0.03288)
~ xmatrix = (0.02012 | 0.00956 0.02012 | 0.009 0.01072 0.02012)
new linecode.LC20123_20124 nphases = 3
~ rmatrix = (0.03288 | 0.0012 0.03288 | 0.0012 0.0012 0.03288)
~ xmatrix = (0.02012 | 0.00956 0.02012 | 0.009 0.01072 0.02012)
new linecode.LC20124_20125 nphases = 3
~ rmatrix = (0.06576 | 0.0024 0.06576 | 0.0024 0.0024 0.06576)
~ xmatrix = (0.04024 | 0.01912 0.04024 | 0.018 0.02144 0.04024)
new linecode.LC20124_20126 nphases = 3
~ rmatrix = (0.06576 | 0.0024 0.06576 | 0.0024 0.0024 0.06576)
~ xmatrix = (0.04024 | 0.01912 0.04024 | 0.018 0.02144 0.04024)
new linecode.LC20126_20127 nphases = 3
~ rmatrix = (0.008544 | 0.0012 0.008544 | 0.0012 0.0012 0.008544)
~ xmatrix = (0.019218 | 0.00956 0.019218 | 0.009 0.01072 0.019218)
new linecode.LC20127_20128 nphases = 3
~ rmatrix = (0.06504 | 0.0036 0.06504 | 0.0036 0.0036 0.06504)
~ xmatrix = (0.05988 | 0.02868 0.05988 | 0.027 0.03216 0.05988)
new linecode.LC20129_20130 nphases = 3
~ rmatrix = (0.052969 | 0.0042 0.052969 | 0.0042 0.0042 0.052969)
~ xmatrix = (0.070469 | 0.03346 0.070469 | 0.0315 0.03752 0.070469)
new linecode.LC20105_20131 nphases = 3
~ rmatrix = (0.008544 | 0.0012 0.008544 | 0.0012 0.0012 0.008544)
~ xmatrix = (0.019218 | 0.00956 0.019218 | 0.009 0.01072 0.019218)
new linecode.LC20131_20132 nphases = 3
~ rmatrix = (0.07567 | 0.006 0.07567 | 0.006 0.006 0.07567)
~ xmatrix = (0.10067 | 0.0478 0.10067 | 0.045 0.0536 0.10067)
new linecode.LC20131_20133 nphases = 3
~ rmatrix = (0.030268 | 0.0024 0.030268 | 0.0024 0.0024 0.030268)
~ xmatrix = (0.040268 | 0.01912 0.040268 | 0.018 0.02144 0.040268)
new linecode.LC20133_20134 nphases = 3
~ rmatrix = (0.030268 | 0.0024 0.030268 | 0.0024 0.0024 0.030268)
~ xmatrix = (0.040268 | 0.01912 0.040268 | 0.018 0.02144 0.040268)
new linecode.LC20134_20135 nphases = 3
~ rmatrix = (0.030268 | 0.0024 0.030268 | 0.0024 0.0024 0.030268)
~ xmatrix = (0.040268 | 0.01912 0.040268 | 0.018 0.02144 0.040268)
new linecode.LC36_212 nphases = 3
~ rmatrix = (0.38448 | 0.054 0.38448 | 0.054 0.054 0.38448)
~ xmatrix = (0.86481 | 0.4302 0.86481 | 0.405 0.4824 0.86481)
new linecode.LC212_213 nphases = 3
~ rmatrix = (0.0542 | 0.003 0.0542 | 0.003 0.003 0.0542)
~ xmatrix = (0.0499 | 0.0239 0.0499 | 0.0225 0.0268 0.0499)
new linecode.LC213_214 nphases = 3
~ rmatrix = (0.04272 | 0.006 0.04272 | 0.006 0.006 0.04272)
~ xmatrix = (0.09609 | 0.0478 0.09609 | 0.045 0.0536 0.09609)
new linecode.LC213_215 nphases = 3
~ rmatrix = (0.017088 | 0.0024 0.017088 | 0.0024 0.0024 0.017088)
~ xmatrix = (0.038436 | 0.01912 0.038436 | 0.018 0.02144 0.038436)
new linecode.LC215_216 nphases = 3
~ rmatrix = (0.08544 | 0.012 0.08544 | 0.012 0.012 0.08544)
~ xmatrix = (0.19218 | 0.0956 0.19218 | 0.09 0.1072 0.19218)
new linecode.LC216_217 nphases = 3
~ rmatrix = (0.08544 | 0.012 0.08544 | 0.012 0.012 0.08544)
~ xmatrix = (0.19218 | 0.0956 0.19218 | 0.09 0.1072 0.19218)
new linecode.LC217_218 nphases = 3
~ rmatrix = (0.08544 | 0.012 0.08544 | 0.012 0.012 0.08544)
~ xmatrix = (0.19218 | 0.0956 0.19218 | 0.09 0.1072 0.19218)
new linecode.LC218_219 nphases = 3
~ rmatrix = (0.004272 | 0.0006 0.004272 | 0.0006 0.0006 0.004272)
~ xmatrix = (0.009609 | 0.00478 0.009609 | 0.0045 0.00536 0.009609)
new linecode.LC219_2110 nphases = 3
~ rmatrix = (0.02136 | 0.003 0.02136 | 0.003 0.003 0.02136)
~ xmatrix = (0.048045 | 0.0239 0.048045 | 0.0225 0.0268 0.048045)
new linecode.LC2110_2111 nphases = 3
~ rmatrix = (0.1644 | 0.006 0.1644 | 0.006 0.006 0.1644)
~ xmatrix = (0.1006 | 0.0478 0.1006 | 0.045 0.0536 0.1006)
new linecode.LC2111_2112 nphases = 3
~ rmatrix = (0.09864 | 0.0036 0.09864 | 0.0036 0.0036 0.09864)
~ xmatrix = (0.06036 | 0.02868 0.06036 | 0.027 0.03216 0.06036)
new linecode.LC2112_2113 nphases = 3
~ rmatrix = (0.04932 | 0.0018 0.04932 | 0.0018 0.0018 0.04932)
~ xmatrix = (0.03018 | 0.01434 0.03018 | 0.0135 0.01608 0.03018)
new linecode.LC2113_2114 nphases = 3
~ rmatrix = (0.26304 | 0.0096 0.26304 | 0.0096 0.0096 0.26304)
~ xmatrix = (0.16096 | 0.07648 0.16096 | 0.072 0.08576 0.16096)
new linecode.LC2114_2115 nphases = 3
~ rmatrix = (0.04932 | 0.0018 0.04932 | 0.0018 0.0018 0.04932)
~ xmatrix = (0.03018 | 0.01434 0.03018 | 0.0135 0.01608 0.03018)
new linecode.LC2112_2116 nphases = 3
~ rmatrix = (0.01644 | 0.0006 0.01644 | 0.0006 0.0006 0.01644)
~ xmatrix = (0.01006 | 0.00478 0.01006 | 0.0045 0.00536 0.01006)
new linecode.LC2116_2117 nphases = 3
~ rmatrix = (0.03288 | 0.0012 0.03288 | 0.0012 0.0012 0.03288)
~ xmatrix = (0.02012 | 0.00956 0.02012 | 0.009 0.01072 0.02012)
new linecode.LC2117_2118 nphases = 3
~ rmatrix = (0.06576 | 0.0024 0.06576 | 0.0024 0.0024 0.06576)
~ xmatrix = (0.04024 | 0.01912 0.04024 | 0.018 0.02144 0.04024)
new linecode.LC2118_2119 nphases = 3
~ rmatrix = (0.04336 | 0.0024 0.04336 | 0.0024 0.0024 0.04336)
~ xmatrix = (0.03992 | 0.01912 0.03992 | 0.018 0.02144 0.03992)
new linecode.LC2119_2120 nphases = 3
~ rmatrix = (0.0542 | 0.003 0.0542 | 0.003 0.003 0.0542)
~ xmatrix = (0.0499 | 0.0239 0.0499 | 0.0225 0.0268 0.0499)
new linecode.LC2120_2121 nphases = 3
~ rmatrix = (0.1626 | 0.009 0.1626 | 0.009 0.009 0.1626)
~ xmatrix = (0.1497 | 0.0717 0.1497 | 0.0675 0.0804 0.1497)
new linecode.LC2119_2122 nphases = 3
~ rmatrix = (0.012816 | 0.0018 0.012816 | 0.0018 0.0018 0.012816)
~ xmatrix = (0.028827 | 0.01434 0.028827 | 0.0135 0.01608 0.028827)
new linecode.LC2111_2123 nphases = 3
~ rmatrix = (0.029904 | 0.0042 0.029904 | 0.0042 0.0042 0.029904)
~ xmatrix = (0.067263 | 0.03346 0.067263 | 0.0315 0.03752 0.067263)
new linecode.LC2123_2124 nphases = 3
~ rmatrix = (0.0822 | 0.003 0.0822 | 0.003 0.003 0.0822)
~ xmatrix = (0.0503 | 0.0239 0.0503 | 0.0225 0.0268 0.0503)
new linecode.LC2124_2125 nphases = 3
~ rmatrix = (0.03288 | 0.0012 0.03288 | 0.0012 0.0012 0.03288)
~ xmatrix = (0.02012 | 0.00956 0.02012 | 0.009 0.01072 0.02012)
new linecode.LC2125_2126 nphases = 3
~ rmatrix = (0.04932 | 0.0018 0.04932 | 0.0018 0.0018 0.04932)
~ xmatrix = (0.03018 | 0.01434 0.03018 | 0.0135 0.01608 0.03018)
new linecode.LC2126_2127 nphases = 3
~ rmatrix = (0.06504 | 0.0036 0.06504 | 0.0036 0.0036 0.06504)
~ xmatrix = (0.05988 | 0.02868 0.05988 | 0.027 0.03216 0.05988)
new linecode.LC2127_2128 nphases = 3
~ rmatrix = (0.04336 | 0.0024 0.04336 | 0.0024 0.0024 0.04336)
~ xmatrix = (0.03992 | 0.01912 0.03992 | 0.018 0.02144 0.03992)
new linecode.LC2128_2129 nphases = 3
~ rmatrix = (0.02168 | 0.0012 0.02168 | 0.0012 0.0012 0.02168)
~ xmatrix = (0.01996 | 0.00956 0.01996 | 0.009 0.01072 0.01996)
new linecode.LC2129_2130 nphases = 3
~ rmatrix = (0.13008 | 0.0072 0.13008 | 0.0072 0.0072 0.13008)
~ xmatrix = (0.11976 | 0.05736 0.11976 | 0.054 0.06432 0.11976)
new linecode.LC2130_2131 nphases = 3
~ rmatrix = (0.02168 | 0.0012 0.02168 | 0.0012 0.0012 0.02168)
~ xmatrix = (0.01996 | 0.00956 0.01996 | 0.009 0.01072 0.01996)
new linecode.LC2129_2132 nphases = 3
~ rmatrix = (0.03288 | 0.0012 0.03288 | 0.0012 0.0012 0.03288)
~ xmatrix = (0.02012 | 0.00956 0.02012 | 0.009 0.01072 0.02012)
new linecode.LC2127_2133 nphases = 3
~ rmatrix = (0.00822 | 0.0003 0.00822 | 0.0003 0.0003 0.00822)
~ xmatrix = (0.00503 | 0.00239 0.00503 | 0.00225 0.00268 0.00503)
new linecode.LC2133_2134 nphases = 3
~ rmatrix = (0.0411 | 0.0015 0.0411 | 0.0015 0.0015 0.0411)
~ xmatrix = (0.02515 | 0.01195 0.02515 | 0.01125 0.0134 0.02515)
new linecode.LC2134_2135 nphases = 3
~ rmatrix = (0.004272 | 0.0006 0.004272 | 0.0006 0.0006 0.004272)
~ xmatrix = (0.009609 | 0.00478 0.009609 | 0.0045 0.00536 0.009609)
new linecode.LC2124_2136 nphases = 3
~ rmatrix = (0.029904 | 0.0042 0.029904 | 0.0042 0.0042 0.029904)
~ xmatrix = (0.067263 | 0.03346 0.067263 | 0.0315 0.03752 0.067263)
new linecode.LC2136_2137 nphases = 3
~ rmatrix = (0.004272 | 0.0006 0.004272 | 0.0006 0.0006 0.004272)
~ xmatrix = (0.009609 | 0.00478 0.009609 | 0.0045 0.00536 0.009609)
new linecode.LC2137_2138 nphases = 3
~ rmatrix = (0.004272 | 0.0006 0.004272 | 0.0006 0.0006 0.004272)
~ xmatrix = (0.009609 | 0.00478 0.009609 | 0.0045 0.00536 0.009609)
new linecode.LC2138_2139 nphases = 3
~ rmatrix = (0.029904 | 0.0042 0.029904 | 0.0042 0.0042 0.029904)
~ xmatrix = (0.067263 | 0.03346 0.067263 | 0.0315 0.03752 0.067263)
new linecode.LC2139_2140 nphases = 3
~ rmatrix = (0.04272 | 0.006 0.04272 | 0.006 0.006 0.04272)
~ xmatrix = (0.09609 | 0.0478 0.09609 | 0.045 0.0536 0.09609)
new linecode.LC2139_2141 nphases = 3
~ rmatrix = (0.09864 | 0.0036 0.09864 | 0.0036 0.0036 0.09864)
~ xmatrix = (0.06036 | 0.02868 0.06036 | 0.027 0.03216 0.06036)
new linecode.LC2141_2142 nphases = 3
~ rmatrix = (0.0822 | 0.003 0.0822 | 0.003 0.003 0.0822)
~ xmatrix = (0.0503 | 0.0239 0.0503 | 0.0225 0.0268 0.0503)
new linecode.LC2141_2143 nphases = 3
~ rmatrix = (0.01644 | 0.0006 0.01644 | 0.0006 0.0006 0.01644)
~ xmatrix = (0.01006 | 0.00478 0.01006 | 0.0045 0.00536 0.01006)
new linecode.LC2143_2144 nphases = 3
~ rmatrix = (0.012816 | 0.0018 0.012816 | 0.0018 0.0018 0.012816)
~ xmatrix = (0.028827 | 0.01434 0.028827 | 0.0135 0.01608 0.028827)
new linecode.LC2141_2145 nphases = 3
~ rmatrix = (0.017088 | 0.0024 0.017088 | 0.0024 0.0024 0.017088)
~ xmatrix = (0.038436 | 0.01912 0.038436 | 0.018 0.02144 0.038436)
new linecode.LC2145_2146 nphases = 3
~ rmatrix = (0.025632 | 0.0036 0.025632 | 0.0036 0.0036 0.025632)
~ xmatrix = (0.057654 | 0.02868 0.057654 | 0.027 0.03216 0.057654)
new linecode.LC2139_2147 nphases = 3
~ rmatrix = (0.008544 | 0.0012 0.008544 | 0.0012 0.0012 0.008544)
~ xmatrix = (0.019218 | 0.00956 0.019218 | 0.009 0.01072 0.019218)
new linecode.LC2147_2148 nphases = 3
~ rmatrix = (0.051264 | 0.0072 0.051264 | 0.0072 0.0072 0.051264)
~ xmatrix = (0.115308 | 0.05736 0.115308 | 0.054 0.06432 0.115308)
new linecode.LC2148_2149 nphases = 3
~ rmatrix = (0.02136 | 0.003 0.02136 | 0.003 0.003 0.02136)
~ xmatrix = (0.048045 | 0.0239 0.048045 | 0.0225 0.0268 0.048045)
new linecode.LC2149_2150 nphases = 3
~ rmatrix = (0.008544 | 0.0012 0.008544 | 0.0012 0.0012 0.008544)
~ xmatrix = (0.019218 | 0.00956 0.019218 | 0.009 0.01072 0.019218)
new linecode.LC2150_2151 nphases = 3
~ rmatrix = (0.072624 | 0.0102 0.072624 | 0.0102 0.0102 0.072624)
~ xmatrix = (0.163353 | 0.08126 0.163353 | 0.0765 0.09112 0.163353)
new linecode.LC2151_2152 nphases = 3
~ rmatrix = (0.04272 | 0.006 0.04272 | 0.006 0.006 0.04272)
~ xmatrix = (0.09609 | 0.0478 0.09609 | 0.045 0.0536 0.09609)
new linecode.LC2149_2153 nphases = 3
~ rmatrix = (0.09864 | 0.0036 0.09864 | 0.0036 0.0036 0.09864)
~ xmatrix = (0.06036 | 0.02868 0.06036 | 0.027 0.03216 0.06036)
new linecode.LC2153_2154 nphases = 3
~ rmatrix = (0.04932 | 0.0018 0.04932 | 0.0018 0.0018 0.04932)
~ xmatrix = (0.03018 | 0.01434 0.03018 | 0.0135 0.01608 0.03018)
new linecode.LC2154_2155 nphases = 3
~ rmatrix = (0.21372 | 0.0078 0.21372 | 0.0078 0.0078 0.21372)
~ xmatrix = (0.13078 | 0.06214 0.13078 | 0.0585 0.06968 0.13078)
new linecode.LC2155_2156 nphases = 3
~ rmatrix = (0.03288 | 0.0012 0.03288 | 0.0012 0.0012 0.03288)
~ xmatrix = (0.02012 | 0.00956 0.02012 | 0.009 0.01072 0.02012)
new linecode.LC2153_2157 nphases = 3
~ rmatrix = (0.13152 | 0.0048 0.13152 | 0.0048 0.0048 0.13152)
~ xmatrix = (0.08048 | 0.03824 0.08048 | 0.036 0.04288 0.08048)
new linecode.LC2157_2158 nphases = 3
~ rmatrix = (0.0542 | 0.003 0.0542 | 0.003 0.003 0.0542)
~ xmatrix = (0.0499 | 0.0239 0.0499 | 0.0225 0.0268 0.0499)
new linecode.LC2158_2159 nphases = 3
~ rmatrix = (0.06504 | 0.0036 0.06504 | 0.0036 0.0036 0.06504)
~ xmatrix = (0.05988 | 0.02868 0.05988 | 0.027 0.03216 0.05988)
new linecode.LC2158_2160 nphases = 3
~ rmatrix = (0.02168 | 0.0012 0.02168 | 0.0012 0.0012 0.02168)
~ xmatrix = (0.01996 | 0.00956 0.01996 | 0.009 0.01072 0.01996)
new linecode.LC2160_2161 nphases = 3
~ rmatrix = (0.017088 | 0.0024 0.017088 | 0.0024 0.0024 0.017088)
~ xmatrix = (0.038436 | 0.01912 0.038436 | 0.018 0.02144 0.038436)
new linecode.LC2149_2162 nphases = 3
~ rmatrix = (0.004272 | 0.0006 0.004272 | 0.0006 0.0006 0.004272)
~ xmatrix = (0.009609 | 0.00478 0.009609 | 0.0045 0.00536 0.009609)
new linecode.LC2162_2163 nphases = 3
~ rmatrix = (0.02136 | 0.003 0.02136 | 0.003 0.003 0.02136)
~ xmatrix = (0.048045 | 0.0239 0.048045 | 0.0225 0.0268 0.048045)
new linecode.LC2163_2164 nphases = 3
~ rmatrix = (0.022701 | 0.0018 0.022701 | 0.0018 0.0018 0.022701)
~ xmatrix = (0.030201 | 0.01434 0.030201 | 0.0135 0.01608 0.030201)
new linecode.LC2164_2165 nphases = 3
~ rmatrix = (0.015134 | 0.0012 0.015134 | 0.0012 0.0012 0.015134)
~ xmatrix = (0.020134 | 0.00956 0.020134 | 0.009 0.01072 0.020134)
new linecode.LC2165_2166 nphases = 3
~ rmatrix = (0.022701 | 0.0018 0.022701 | 0.0018 0.0018 0.022701)
~ xmatrix = (0.030201 | 0.01434 0.030201 | 0.0135 0.01608 0.030201)
new linecode.LC2166_2167 nphases = 3
~ rmatrix = (0.015134 | 0.0012 0.015134 | 0.0012 0.0012 0.015134)
~ xmatrix = (0.020134 | 0.00956 0.020134 | 0.009 0.01072 0.020134)
new linecode.LC2167_2168 nphases = 3
~ rmatrix = (0.04932 | 0.0018 0.04932 | 0.0018 0.0018 0.04932)
~ xmatrix = (0.03018 | 0.01434 0.03018 | 0.0135 0.01608 0.03018)
new linecode.LC2168_2169 nphases = 3
~ rmatrix = (0.03288 | 0.0012 0.03288 | 0.0012 0.0012 0.03288)
~ xmatrix = (0.02012 | 0.00956 0.02012 | 0.009 0.01072 0.02012)
new linecode.LC2168_2170 nphases = 3
~ rmatrix = (0.03288 | 0.0012 0.03288 | 0.0012 0.0012 0.03288)
~ xmatrix = (0.02012 | 0.00956 0.02012 | 0.009 0.01072 0.02012)
new linecode.LC2170_2171 nphases = 3
~ rmatrix = (0.037835 | 0.003 0.037835 | 0.003 0.003 0.037835)
~ xmatrix = (0.050335 | 0.0239 0.050335 | 0.0225 0.0268 0.050335)
new linecode.LC2168_2172 nphases = 3
~ rmatrix = (0.030268 | 0.0024 0.030268 | 0.0024 0.0024 0.030268)
~ xmatrix = (0.040268 | 0.01912 0.040268 | 0.018 0.02144 0.040268)
new linecode.LC2172_2173 nphases = 3
~ rmatrix = (0.030268 | 0.0024 0.030268 | 0.0024 0.0024 0.030268)
~ xmatrix = (0.040268 | 0.01912 0.040268 | 0.018 0.02144 0.040268)
new linecode.LC2173_2174 nphases = 3
~ rmatrix = (0.015134 | 0.0012 0.015134 | 0.0012 0.0012 0.015134)
~ xmatrix = (0.020134 | 0.00956 0.020134 | 0.009 0.01072 0.020134)
new linecode.LC2174_2175 nphases = 3
~ rmatrix = (0.083237 | 0.0066 0.083237 | 0.0066 0.0066 0.083237)
~ xmatrix = (0.110737 | 0.05258 0.110737 | 0.0495 0.05896 0.110737)
new linecode.LC2175_2176 nphases = 3
~ rmatrix = (0.008544 | 0.0012 0.008544 | 0.0012 0.0012 0.008544)
~ xmatrix = (0.019218 | 0.00956 0.019218 | 0.009 0.01072 0.019218)
new linecode.LC2164_2177 nphases = 3
~ rmatrix = (0.012816 | 0.0018 0.012816 | 0.0018 0.0018 0.012816)
~ xmatrix = (0.028827 | 0.01434 0.028827 | 0.0135 0.01608 0.028827)
new linecode.LC2177_2178 nphases = 3
~ rmatrix = (0.02136 | 0.003 0.02136 | 0.003 0.003 0.02136)
~ xmatrix = (0.048045 | 0.0239 0.048045 | 0.0225 0.0268 0.048045)
new linecode.LC2178_2179 nphases = 3
~ rmatrix = (0.029904 | 0.0042 0.029904 | 0.0042 0.0042 0.029904)
~ xmatrix = (0.067263 | 0.03346 0.067263 | 0.0315 0.03752 0.067263)
new linecode.LC2179_2180 nphases = 3
~ rmatrix = (0.029904 | 0.0042 0.029904 | 0.0042 0.0042 0.029904)
~ xmatrix = (0.067263 | 0.03346 0.067263 | 0.0315 0.03752 0.067263)
new linecode.LC2180_2181 nphases = 3
~ rmatrix = (0.012816 | 0.0018 0.012816 | 0.0018 0.0018 0.012816)
~ xmatrix = (0.028827 | 0.01434 0.028827 | 0.0135 0.01608 0.028827)
new linecode.LC2181_2182 nphases = 3
~ rmatrix = (0.012816 | 0.0018 0.012816 | 0.0018 0.0018 0.012816)
~ xmatrix = (0.028827 | 0.01434 0.028827 | 0.0135 0.01608 0.028827)
new linecode.LC2182_2183 nphases = 3
~ rmatrix = (0.0822 | 0.003 0.0822 | 0.003 0.003 0.0822)
~ xmatrix = (0.0503 | 0.0239 0.0503 | 0.0225 0.0268 0.0503)
new linecode.LC2183_2184 nphases = 3
~ rmatrix = (0.02136 | 0.003 0.02136 | 0.003 0.003 0.02136)
~ xmatrix = (0.048045 | 0.0239 0.048045 | 0.0225 0.0268 0.048045)
new linecode.LC2183_2185 nphases = 3
~ rmatrix = (0.012816 | 0.0018 0.012816 | 0.0018 0.0018 0.012816)
~ xmatrix = (0.028827 | 0.01434 0.028827 | 0.0135 0.01608 0.028827)
new linecode.LC2185_2186 nphases = 3
~ rmatrix = (0.012816 | 0.0018 0.012816 | 0.0018 0.0018 0.012816)
~ xmatrix = (0.028827 | 0.01434 0.028827 | 0.0135 0.01608 0.028827)
new linecode.LC2186_21129 nphases = 3
~ rmatrix = (0.008544 | 0.0012 0.008544 | 0.0012 0.0012 0.008544)
~ xmatrix = (0.019218 | 0.00956 0.019218 | 0.009 0.01072 0.019218)
new linecode.LC21129_2187 nphases = 3
~ rmatrix = (0.14092 | 0.0078 0.14092 | 0.0078 0.0078 0.14092)
~ xmatrix = (0.12974 | 0.06214 0.12974 | 0.0585 0.06968 0.12974)
new linecode.LC2187_2188 nphases = 3
~ rmatrix = (0.002136 | 0.0003 0.002136 | 0.0003 0.0003 0.002136)
~ xmatrix = (0.004805 | 0.00239 0.004805 | 0.00225 0.00268 0.004805)
new linecode.LC2179_2189 nphases = 3
~ rmatrix = (0.02136 | 0.003 0.02136 | 0.003 0.003 0.02136)
~ xmatrix = (0.048045 | 0.0239 0.048045 | 0.0225 0.0268 0.048045)
new linecode.LC2179_2190 nphases = 3
~ rmatrix = (0.076896 | 0.0108 0.076896 | 0.0108 0.0108 0.076896)
~ xmatrix = (0.172962 | 0.08604 0.172962 | 0.081 0.09648 0.172962)
new linecode.LC2190_2191 nphases = 3
~ rmatrix = (0.008544 | 0.0012 0.008544 | 0.0012 0.0012 0.008544)
~ xmatrix = (0.019218 | 0.00956 0.019218 | 0.009 0.01072 0.019218)
new linecode.LC2191_2192 nphases = 3
~ rmatrix = (0.03252 | 0.0018 0.03252 | 0.0018 0.0018 0.03252)
~ xmatrix = (0.02994 | 0.01434 0.02994 | 0.0135 0.01608 0.02994)
new linecode.LC2192_2193 nphases = 3
~ rmatrix = (0.07588 | 0.0042 0.07588 | 0.0042 0.0042 0.07588)
~ xmatrix = (0.06986 | 0.03346 0.06986 | 0.0315 0.03752 0.06986)
new linecode.LC2193_2194 nphases = 3
~ rmatrix = (0.04272 | 0.006 0.04272 | 0.006 0.006 0.04272)
~ xmatrix = (0.09609 | 0.0478 0.09609 | 0.045 0.0536 0.09609)
new linecode.LC2193_2195 nphases = 3
~ rmatrix = (0.04336 | 0.0024 0.04336 | 0.0024 0.0024 0.04336)
~ xmatrix = (0.03992 | 0.01912 0.03992 | 0.018 0.02144 0.03992)
new linecode.LC2193_2196 nphases = 3
~ rmatrix = (0.0542 | 0.003 0.0542 | 0.003 0.003 0.0542)
~ xmatrix = (0.0499 | 0.0239 0.0499 | 0.0225 0.0268 0.0499)
new linecode.LC2196_2197 nphases = 3
...